* NGSPICE file created from i2s_tx.ext - technology: sky130A

* Black-box entry subcircuit for sky130_ef_sc_hd__decap_12 abstract view
.subckt sky130_ef_sc_hd__decap_12 VPWR VGND VPB VNB
.ends

* Black-box entry subcircuit for sky130_fd_sc_hd__fill_1 abstract view
.subckt sky130_fd_sc_hd__fill_1 VGND VNB VPB VPWR
.ends

* Black-box entry subcircuit for sky130_fd_sc_hd__clkbuf_4 abstract view
.subckt sky130_fd_sc_hd__clkbuf_4 A VGND VNB VPB VPWR X
.ends

* Black-box entry subcircuit for sky130_fd_sc_hd__inv_2 abstract view
.subckt sky130_fd_sc_hd__inv_2 A VGND VNB VPB VPWR Y
.ends

* Black-box entry subcircuit for sky130_fd_sc_hd__fill_2 abstract view
.subckt sky130_fd_sc_hd__fill_2 VGND VNB VPB VPWR
.ends

* Black-box entry subcircuit for sky130_fd_sc_hd__decap_6 abstract view
.subckt sky130_fd_sc_hd__decap_6 VGND VNB VPB VPWR
.ends

* Black-box entry subcircuit for sky130_fd_sc_hd__decap_4 abstract view
.subckt sky130_fd_sc_hd__decap_4 VGND VNB VPB VPWR
.ends

* Black-box entry subcircuit for sky130_fd_sc_hd__decap_8 abstract view
.subckt sky130_fd_sc_hd__decap_8 VGND VNB VPB VPWR
.ends

* Black-box entry subcircuit for sky130_fd_sc_hd__tapvpwrvgnd_1 abstract view
.subckt sky130_fd_sc_hd__tapvpwrvgnd_1 VGND VPWR
.ends

* Black-box entry subcircuit for sky130_fd_sc_hd__buf_2 abstract view
.subckt sky130_fd_sc_hd__buf_2 A VGND VNB VPB VPWR X
.ends

* Black-box entry subcircuit for sky130_fd_sc_hd__decap_3 abstract view
.subckt sky130_fd_sc_hd__decap_3 VGND VNB VPB VPWR
.ends

* Black-box entry subcircuit for sky130_fd_sc_hd__buf_4 abstract view
.subckt sky130_fd_sc_hd__buf_4 A VGND VNB VPB VPWR X
.ends

* Black-box entry subcircuit for sky130_fd_sc_hd__o221a_1 abstract view
.subckt sky130_fd_sc_hd__o221a_1 A1 A2 B1 B2 C1 VGND VNB VPB VPWR X
.ends

* Black-box entry subcircuit for sky130_fd_sc_hd__dfrtp_1 abstract view
.subckt sky130_fd_sc_hd__dfrtp_1 CLK D RESET_B VGND VNB VPB VPWR Q
.ends

* Black-box entry subcircuit for sky130_fd_sc_hd__or2_1 abstract view
.subckt sky130_fd_sc_hd__or2_1 A B VGND VNB VPB VPWR X
.ends

* Black-box entry subcircuit for sky130_fd_sc_hd__clkbuf_1 abstract view
.subckt sky130_fd_sc_hd__clkbuf_1 A VGND VNB VPB VPWR X
.ends

* Black-box entry subcircuit for sky130_fd_sc_hd__nand4_2 abstract view
.subckt sky130_fd_sc_hd__nand4_2 A B C D VGND VNB VPB VPWR Y
.ends

* Black-box entry subcircuit for sky130_fd_sc_hd__buf_1 abstract view
.subckt sky130_fd_sc_hd__buf_1 A VGND VNB VPB VPWR X
.ends

* Black-box entry subcircuit for sky130_fd_sc_hd__and2_1 abstract view
.subckt sky130_fd_sc_hd__and2_1 A B VGND VNB VPB VPWR X
.ends

* Black-box entry subcircuit for sky130_fd_sc_hd__a31o_1 abstract view
.subckt sky130_fd_sc_hd__a31o_1 A1 A2 A3 B1 VGND VNB VPB VPWR X
.ends

* Black-box entry subcircuit for sky130_fd_sc_hd__xnor2_1 abstract view
.subckt sky130_fd_sc_hd__xnor2_1 A B VGND VNB VPB VPWR Y
.ends

* Black-box entry subcircuit for sky130_fd_sc_hd__clkbuf_2 abstract view
.subckt sky130_fd_sc_hd__clkbuf_2 A VGND VNB VPB VPWR X
.ends

* Black-box entry subcircuit for sky130_fd_sc_hd__dfrtp_4 abstract view
.subckt sky130_fd_sc_hd__dfrtp_4 CLK D RESET_B VGND VNB VPB VPWR Q
.ends

* Black-box entry subcircuit for sky130_fd_sc_hd__dfrtp_2 abstract view
.subckt sky130_fd_sc_hd__dfrtp_2 CLK D RESET_B VGND VNB VPB VPWR Q
.ends

* Black-box entry subcircuit for sky130_fd_sc_hd__nand2_1 abstract view
.subckt sky130_fd_sc_hd__nand2_1 A B VGND VNB VPB VPWR Y
.ends

* Black-box entry subcircuit for sky130_fd_sc_hd__o22ai_1 abstract view
.subckt sky130_fd_sc_hd__o22ai_1 A1 A2 B1 B2 VGND VNB VPB VPWR Y
.ends

* Black-box entry subcircuit for sky130_fd_sc_hd__nand2_2 abstract view
.subckt sky130_fd_sc_hd__nand2_2 A B VGND VNB VPB VPWR Y
.ends

* Black-box entry subcircuit for sky130_fd_sc_hd__and4_2 abstract view
.subckt sky130_fd_sc_hd__and4_2 A B C D VGND VNB VPB VPWR X
.ends

.subckt i2s_tx VGND VPWR clk left_data[0] left_data[10] left_data[11] left_data[12]
+ left_data[13] left_data[14] left_data[15] left_data[1] left_data[2] left_data[3]
+ left_data[4] left_data[5] left_data[6] left_data[7] left_data[8] left_data[9] reset
+ right_data[0] right_data[10] right_data[11] right_data[12] right_data[13] right_data[14]
+ right_data[15] right_data[1] right_data[2] right_data[3] right_data[4] right_data[5]
+ right_data[6] right_data[7] right_data[8] right_data[9] sck sd ws
XFILLER_0_7_81 VPWR VGND VPWR VGND sky130_ef_sc_hd__decap_12
XFILLER_0_3_39 VPWR VGND VPWR VGND sky130_ef_sc_hd__decap_12
XFILLER_0_18_29 VPWR VGND VPWR VGND sky130_ef_sc_hd__decap_12
XFILLER_0_24_83 VGND VGND VPWR VPWR sky130_fd_sc_hd__fill_1
X_131_ _072_ VGND VGND VPWR VPWR _073_ sky130_fd_sc_hd__clkbuf_4
X_200_ net34 VGND VGND VPWR VPWR _061_ sky130_fd_sc_hd__inv_2
XFILLER_0_0_29 VGND VGND VPWR VPWR sky130_fd_sc_hd__fill_2
XFILLER_0_9_27 VPWR VGND VPWR VGND sky130_ef_sc_hd__decap_12
XFILLER_0_10_41 VGND VGND VPWR VPWR sky130_fd_sc_hd__decap_6
XFILLER_0_27_180 VGND VGND VPWR VPWR sky130_fd_sc_hd__fill_1
XFILLER_0_19_169 VPWR VGND VPWR VGND sky130_ef_sc_hd__decap_12
X_114_ _068_ VGND VGND VPWR VPWR _044_ sky130_fd_sc_hd__inv_2
XFILLER_0_21_51 VGND VGND VPWR VPWR sky130_fd_sc_hd__decap_4
XFILLER_0_16_117 VGND VGND VPWR VPWR sky130_fd_sc_hd__fill_2
XFILLER_0_26_29 VPWR VGND VPWR VGND sky130_ef_sc_hd__decap_12
XFILLER_0_26_18 VGND VGND VPWR VPWR sky130_fd_sc_hd__decap_8
XFILLER_0_22_109 VPWR VGND VPWR VGND sky130_ef_sc_hd__decap_12
XFILLER_0_1_50 VGND VGND VPWR VPWR sky130_fd_sc_hd__decap_6
XFILLER_0_16_73 VGND VGND VPWR VPWR sky130_fd_sc_hd__decap_4
XTAP_145 VGND VPWR sky130_fd_sc_hd__tapvpwrvgnd_1
XTAP_134 VGND VPWR sky130_fd_sc_hd__tapvpwrvgnd_1
XTAP_123 VGND VPWR sky130_fd_sc_hd__tapvpwrvgnd_1
XTAP_112 VGND VPWR sky130_fd_sc_hd__tapvpwrvgnd_1
XTAP_101 VGND VPWR sky130_fd_sc_hd__tapvpwrvgnd_1
XFILLER_0_7_93 VPWR VGND VPWR VGND sky130_ef_sc_hd__decap_12
XFILLER_0_2_109 VPWR VGND VPWR VGND sky130_ef_sc_hd__decap_12
XFILLER_0_13_74 VPWR VGND VPWR VGND sky130_ef_sc_hd__decap_12
XFILLER_0_1_186 VGND VGND VPWR VPWR sky130_fd_sc_hd__decap_4
XFILLER_0_4_83 VGND VGND VPWR VPWR sky130_fd_sc_hd__fill_1
X_130_ _071_ VGND VGND VPWR VPWR _072_ sky130_fd_sc_hd__buf_2
XFILLER_0_9_39 VPWR VGND VPWR VGND sky130_ef_sc_hd__decap_12
XFILLER_0_19_51 VGND VGND VPWR VPWR sky130_fd_sc_hd__decap_4
XFILLER_0_10_75 VGND VGND VPWR VPWR sky130_fd_sc_hd__decap_3
X_113_ net17 VGND VGND VPWR VPWR _068_ sky130_fd_sc_hd__buf_4
XFILLER_0_16_41 VGND VGND VPWR VPWR sky130_fd_sc_hd__fill_2
XFILLER_0_6_29 VPWR VGND VPWR VGND sky130_ef_sc_hd__decap_12
XFILLER_0_7_181 VGND VGND VPWR VPWR sky130_fd_sc_hd__decap_8
XTAP_135 VGND VPWR sky130_fd_sc_hd__tapvpwrvgnd_1
XTAP_124 VGND VPWR sky130_fd_sc_hd__tapvpwrvgnd_1
XTAP_113 VGND VPWR sky130_fd_sc_hd__tapvpwrvgnd_1
XTAP_102 VGND VPWR sky130_fd_sc_hd__tapvpwrvgnd_1
XFILLER_0_13_86 VGND VGND VPWR VPWR sky130_fd_sc_hd__decap_8
XFILLER_0_24_85 VPWR VGND VPWR VGND sky130_ef_sc_hd__decap_12
XFILLER_0_24_41 VPWR VGND VPWR VGND sky130_ef_sc_hd__decap_12
X_189_ net34 VGND VGND VPWR VPWR _101_ sky130_fd_sc_hd__buf_4
X_112_ _067_ VGND VGND VPWR VPWR _046_ sky130_fd_sc_hd__inv_2
XFILLER_0_24_141 VPWR VGND VPWR VGND sky130_ef_sc_hd__decap_12
XFILLER_0_21_111 VGND VGND VPWR VPWR sky130_fd_sc_hd__fill_1
XFILLER_0_12_144 VPWR VGND VPWR VGND sky130_ef_sc_hd__decap_12
XFILLER_0_12_188 VGND VGND VPWR VPWR sky130_fd_sc_hd__fill_2
XFILLER_0_9_3 VPWR VGND VPWR VGND sky130_ef_sc_hd__decap_12
XFILLER_0_27_85 VPWR VGND VPWR VGND sky130_ef_sc_hd__decap_12
XTAP_136 VGND VPWR sky130_fd_sc_hd__tapvpwrvgnd_1
XTAP_125 VGND VPWR sky130_fd_sc_hd__tapvpwrvgnd_1
XTAP_114 VGND VPWR sky130_fd_sc_hd__tapvpwrvgnd_1
XTAP_103 VGND VPWR sky130_fd_sc_hd__tapvpwrvgnd_1
XFILLER_0_4_141 VPWR VGND VPWR VGND sky130_ef_sc_hd__decap_12
XFILLER_0_13_54 VGND VGND VPWR VPWR sky130_fd_sc_hd__fill_2
XFILLER_0_1_111 VGND VGND VPWR VPWR sky130_fd_sc_hd__fill_1
XFILLER_0_24_97 VPWR VGND VPWR VGND sky130_ef_sc_hd__decap_12
XFILLER_0_24_53 VPWR VGND VPWR VGND sky130_ef_sc_hd__decap_12
XFILLER_0_4_41 VPWR VGND VPWR VGND sky130_ef_sc_hd__decap_12
XFILLER_0_4_85 VPWR VGND VPWR VGND sky130_ef_sc_hd__decap_12
XFILLER_0_19_75 VGND VGND VPWR VPWR sky130_fd_sc_hd__fill_1
X_188_ _094_ VGND VGND VPWR VPWR _039_ sky130_fd_sc_hd__inv_2
XFILLER_0_10_88 VGND VGND VPWR VPWR sky130_fd_sc_hd__decap_4
XFILLER_0_18_150 VPWR VGND VPWR VGND sky130_ef_sc_hd__decap_12
X_111_ _067_ VGND VGND VPWR VPWR _048_ sky130_fd_sc_hd__inv_2
XFILLER_0_24_153 VPWR VGND VPWR VGND sky130_ef_sc_hd__decap_12
XFILLER_0_15_153 VPWR VGND VPWR VGND sky130_ef_sc_hd__decap_12
XFILLER_0_21_189 VGND VGND VPWR VPWR sky130_fd_sc_hd__fill_1
XFILLER_0_21_167 VGND VGND VPWR VPWR sky130_fd_sc_hd__fill_1
XFILLER_0_8_139 VGND VGND VPWR VPWR sky130_fd_sc_hd__fill_1
XFILLER_0_12_156 VPWR VGND VPWR VGND sky130_ef_sc_hd__decap_12
Xoutput34 net34 VGND VGND VPWR VPWR sck sky130_fd_sc_hd__clkbuf_4
XFILLER_0_27_97 VGND VGND VPWR VPWR sky130_fd_sc_hd__decap_4
XTAP_137 VGND VPWR sky130_fd_sc_hd__tapvpwrvgnd_1
XTAP_126 VGND VPWR sky130_fd_sc_hd__tapvpwrvgnd_1
XTAP_115 VGND VPWR sky130_fd_sc_hd__tapvpwrvgnd_1
XTAP_104 VGND VPWR sky130_fd_sc_hd__tapvpwrvgnd_1
XFILLER_0_4_153 VPWR VGND VPWR VGND sky130_ef_sc_hd__decap_12
XFILLER_0_7_30 VPWR VGND VPWR VGND sky130_ef_sc_hd__decap_12
XFILLER_0_1_167 VGND VGND VPWR VPWR sky130_fd_sc_hd__fill_1
XFILLER_0_24_65 VPWR VGND VPWR VGND sky130_ef_sc_hd__decap_12
XFILLER_0_4_53 VPWR VGND VPWR VGND sky130_ef_sc_hd__decap_12
XFILLER_0_4_97 VPWR VGND VPWR VGND sky130_ef_sc_hd__decap_12
X_187_ _094_ VGND VGND VPWR VPWR _037_ sky130_fd_sc_hd__inv_2
XFILLER_0_10_67 VGND VGND VPWR VPWR sky130_fd_sc_hd__decap_8
XFILLER_0_18_162 VPWR VGND VPWR VGND sky130_ef_sc_hd__decap_12
X_110_ _067_ VGND VGND VPWR VPWR _050_ sky130_fd_sc_hd__inv_2
XFILLER_0_24_165 VPWR VGND VPWR VGND sky130_ef_sc_hd__decap_12
XFILLER_0_24_121 VPWR VGND VPWR VGND sky130_ef_sc_hd__decap_12
XFILLER_0_21_55 VGND VGND VPWR VPWR sky130_fd_sc_hd__fill_1
XFILLER_0_15_165 VGND VGND VPWR VPWR sky130_fd_sc_hd__decap_3
XFILLER_0_21_113 VPWR VGND VPWR VGND sky130_ef_sc_hd__decap_12
Xoutput35 net35 VGND VGND VPWR VPWR sd sky130_fd_sc_hd__clkbuf_4
XFILLER_0_12_168 VPWR VGND VPWR VGND sky130_ef_sc_hd__decap_12
XTAP_138 VGND VPWR sky130_fd_sc_hd__tapvpwrvgnd_1
XTAP_127 VGND VPWR sky130_fd_sc_hd__tapvpwrvgnd_1
XTAP_116 VGND VPWR sky130_fd_sc_hd__tapvpwrvgnd_1
XTAP_105 VGND VPWR sky130_fd_sc_hd__tapvpwrvgnd_1
XFILLER_0_27_76 VGND VGND VPWR VPWR sky130_fd_sc_hd__decap_8
XFILLER_0_4_121 VPWR VGND VPWR VGND sky130_ef_sc_hd__decap_12
XFILLER_0_4_165 VPWR VGND VPWR VGND sky130_ef_sc_hd__decap_12
XFILLER_0_7_42 VPWR VGND VPWR VGND sky130_ef_sc_hd__decap_12
XFILLER_0_1_113 VPWR VGND VPWR VGND sky130_ef_sc_hd__decap_12
XFILLER_0_0_9 VGND VGND VPWR VPWR sky130_fd_sc_hd__fill_1
XFILLER_0_24_77 VGND VGND VPWR VPWR sky130_fd_sc_hd__decap_6
XFILLER_0_4_65 VPWR VGND VPWR VGND sky130_ef_sc_hd__decap_12
X_186_ _094_ VGND VGND VPWR VPWR _035_ sky130_fd_sc_hd__inv_2
XFILLER_0_27_174 VGND VGND VPWR VPWR sky130_fd_sc_hd__decap_6
XFILLER_0_27_141 VGND VGND VPWR VPWR sky130_fd_sc_hd__fill_2
XFILLER_0_19_55 VGND VGND VPWR VPWR sky130_fd_sc_hd__fill_1
XFILLER_0_18_174 VPWR VGND VPWR VGND sky130_ef_sc_hd__decap_12
XFILLER_0_24_177 VPWR VGND VPWR VGND sky130_ef_sc_hd__decap_12
XFILLER_0_24_133 VGND VGND VPWR VPWR sky130_fd_sc_hd__decap_6
X_169_ _094_ VGND VGND VPWR VPWR _000_ sky130_fd_sc_hd__inv_2
XFILLER_0_21_169 VPWR VGND VPWR VGND sky130_ef_sc_hd__decap_12
XFILLER_0_21_125 VPWR VGND VPWR VGND sky130_ef_sc_hd__decap_12
XFILLER_0_18_3 VPWR VGND VPWR VGND sky130_ef_sc_hd__decap_12
Xoutput36 net36 VGND VGND VPWR VPWR ws sky130_fd_sc_hd__buf_2
XTAP_139 VGND VPWR sky130_fd_sc_hd__tapvpwrvgnd_1
XFILLER_0_27_55 VGND VGND VPWR VPWR sky130_fd_sc_hd__fill_1
XTAP_128 VGND VPWR sky130_fd_sc_hd__tapvpwrvgnd_1
XTAP_117 VGND VPWR sky130_fd_sc_hd__tapvpwrvgnd_1
XTAP_106 VGND VPWR sky130_fd_sc_hd__tapvpwrvgnd_1
XPHY_0 VGND VGND VPWR VPWR sky130_fd_sc_hd__decap_3
XFILLER_0_4_133 VGND VGND VPWR VPWR sky130_fd_sc_hd__decap_6
XFILLER_0_4_177 VPWR VGND VPWR VGND sky130_ef_sc_hd__decap_12
XFILLER_0_7_54 VGND VGND VPWR VPWR sky130_fd_sc_hd__fill_2
XFILLER_0_13_57 VPWR VGND VPWR VGND sky130_ef_sc_hd__decap_12
XFILLER_0_1_169 VPWR VGND VPWR VGND sky130_ef_sc_hd__decap_12
XFILLER_0_1_125 VPWR VGND VPWR VGND sky130_ef_sc_hd__decap_12
XFILLER_0_4_77 VGND VGND VPWR VPWR sky130_fd_sc_hd__decap_6
X_185_ _094_ VGND VGND VPWR VPWR _033_ sky130_fd_sc_hd__inv_2
XFILLER_0_18_186 VGND VGND VPWR VPWR sky130_fd_sc_hd__decap_4
XFILLER_0_24_189 VGND VGND VPWR VPWR sky130_fd_sc_hd__fill_1
XFILLER_0_21_57 VPWR VGND VPWR VGND sky130_ef_sc_hd__decap_12
X_168_ net34 VGND VGND VPWR VPWR _094_ sky130_fd_sc_hd__buf_4
XFILLER_0_21_137 VPWR VGND VPWR VGND sky130_ef_sc_hd__decap_12
XFILLER_0_11_181 VGND VGND VPWR VPWR sky130_fd_sc_hd__decap_8
XFILLER_0_27_34 VPWR VGND VPWR VGND sky130_ef_sc_hd__decap_12
XFILLER_0_27_12 VPWR VGND VPWR VGND sky130_ef_sc_hd__decap_12
XTAP_129 VGND VPWR sky130_fd_sc_hd__tapvpwrvgnd_1
XTAP_118 VGND VPWR sky130_fd_sc_hd__tapvpwrvgnd_1
XTAP_107 VGND VPWR sky130_fd_sc_hd__tapvpwrvgnd_1
XPHY_1 VGND VGND VPWR VPWR sky130_fd_sc_hd__decap_3
XFILLER_0_4_189 VGND VGND VPWR VPWR sky130_fd_sc_hd__fill_1
XFILLER_0_13_47 VGND VGND VPWR VPWR sky130_fd_sc_hd__fill_1
XFILLER_0_1_137 VPWR VGND VPWR VGND sky130_ef_sc_hd__decap_12
XFILLER_0_27_121 VGND VGND VPWR VPWR sky130_fd_sc_hd__fill_1
XFILLER_0_19_57 VPWR VGND VPWR VGND sky130_ef_sc_hd__decap_12
X_184_ _094_ VGND VGND VPWR VPWR _031_ sky130_fd_sc_hd__inv_2
XFILLER_0_10_15 VPWR VGND VPWR VGND sky130_ef_sc_hd__decap_12
XFILLER_0_21_69 VPWR VGND VPWR VGND sky130_ef_sc_hd__decap_12
X_167_ net24 _072_ _075_ net7 _093_ VGND VGND VPWR VPWR _007_ sky130_fd_sc_hd__o221a_1
XFILLER_0_1_57 VPWR VGND VPWR VGND sky130_ef_sc_hd__decap_12
XFILLER_0_21_149 VPWR VGND VPWR VGND sky130_ef_sc_hd__decap_12
XFILLER_0_21_105 VGND VGND VPWR VPWR sky130_fd_sc_hd__decap_6
XFILLER_0_25_6 VPWR VGND VPWR VGND sky130_ef_sc_hd__decap_12
X_219_ _053_ _016_ _052_ VGND VGND VPWR VPWR shift_reg\[9\] sky130_fd_sc_hd__dfrtp_1
XFILLER_0_12_138 VGND VGND VPWR VPWR sky130_fd_sc_hd__fill_2
XFILLER_0_11_160 VGND VGND VPWR VPWR sky130_fd_sc_hd__decap_8
XFILLER_0_27_57 VPWR VGND VPWR VGND sky130_ef_sc_hd__decap_12
XFILLER_0_27_46 VGND VGND VPWR VPWR sky130_fd_sc_hd__decap_6
XFILLER_0_27_24 VGND VGND VPWR VPWR sky130_fd_sc_hd__decap_4
XTAP_119 VGND VPWR sky130_fd_sc_hd__tapvpwrvgnd_1
XTAP_108 VGND VPWR sky130_fd_sc_hd__tapvpwrvgnd_1
XPHY_2 VGND VGND VPWR VPWR sky130_fd_sc_hd__decap_3
XFILLER_0_23_3 VPWR VGND VPWR VGND sky130_ef_sc_hd__decap_12
XFILLER_0_1_105 VGND VGND VPWR VPWR sky130_fd_sc_hd__decap_6
XFILLER_0_13_15 VPWR VGND VPWR VGND sky130_ef_sc_hd__decap_12
XFILLER_0_1_149 VPWR VGND VPWR VGND sky130_ef_sc_hd__decap_12
XFILLER_0_0_182 VGND VGND VPWR VPWR sky130_fd_sc_hd__fill_2
XFILLER_0_19_69 VGND VGND VPWR VPWR sky130_fd_sc_hd__decap_6
X_183_ _094_ VGND VGND VPWR VPWR _029_ sky130_fd_sc_hd__inv_2
XFILLER_0_10_27 VGND VGND VPWR VPWR sky130_fd_sc_hd__fill_1
XFILLER_0_27_166 VGND VGND VPWR VPWR sky130_fd_sc_hd__fill_2
XFILLER_0_27_111 VGND VGND VPWR VPWR sky130_fd_sc_hd__fill_1
XFILLER_0_21_15 VPWR VGND VPWR VGND sky130_ef_sc_hd__decap_12
XFILLER_0_15_169 VPWR VGND VPWR VGND sky130_ef_sc_hd__decap_12
XFILLER_0_1_69 VPWR VGND VPWR VGND sky130_ef_sc_hd__decap_12
X_166_ shift_reg\[14\] _074_ VGND VGND VPWR VPWR _093_ sky130_fd_sc_hd__or2_1
XFILLER_0_14_180 VGND VGND VPWR VPWR sky130_fd_sc_hd__decap_8
X_149_ net30 _073_ _076_ net13 _084_ VGND VGND VPWR VPWR _013_ sky130_fd_sc_hd__o221a_1
XFILLER_0_16_26 VGND VGND VPWR VPWR sky130_fd_sc_hd__fill_2
X_218_ _051_ _015_ _050_ VGND VGND VPWR VPWR shift_reg\[8\] sky130_fd_sc_hd__dfrtp_1
XFILLER_0_7_111 VGND VGND VPWR VPWR sky130_fd_sc_hd__fill_1
XFILLER_0_7_166 VGND VGND VPWR VPWR sky130_fd_sc_hd__fill_2
XFILLER_0_27_69 VGND VGND VPWR VPWR sky130_fd_sc_hd__decap_4
XTAP_109 VGND VPWR sky130_fd_sc_hd__tapvpwrvgnd_1
XPHY_3 VGND VGND VPWR VPWR sky130_fd_sc_hd__decap_3
XFILLER_0_7_57 VPWR VGND VPWR VGND sky130_ef_sc_hd__decap_12
XFILLER_0_13_27 VPWR VGND VPWR VGND sky130_ef_sc_hd__decap_12
XFILLER_0_7_6 VPWR VGND VPWR VGND sky130_ef_sc_hd__decap_12
XFILLER_0_24_15 VPWR VGND VPWR VGND sky130_ef_sc_hd__decap_12
XFILLER_0_5_3 VPWR VGND VPWR VGND sky130_ef_sc_hd__decap_12
XFILLER_0_19_15 VPWR VGND VPWR VGND sky130_ef_sc_hd__decap_12
X_182_ _094_ VGND VGND VPWR VPWR _027_ sky130_fd_sc_hd__inv_2
XFILLER_0_21_27 VPWR VGND VPWR VGND sky130_ef_sc_hd__decap_12
XFILLER_0_1_15 VPWR VGND VPWR VGND sky130_ef_sc_hd__decap_12
X_165_ net23 _072_ _075_ net6 _092_ VGND VGND VPWR VPWR _006_ sky130_fd_sc_hd__o221a_1
XFILLER_0_23_181 VGND VGND VPWR VPWR sky130_fd_sc_hd__decap_8
X_148_ shift_reg\[5\] _078_ VGND VGND VPWR VPWR _084_ sky130_fd_sc_hd__or2_1
X_217_ _049_ _014_ _048_ VGND VGND VPWR VPWR shift_reg\[7\] sky130_fd_sc_hd__dfrtp_1
XFILLER_0_7_189 VGND VGND VPWR VPWR sky130_fd_sc_hd__fill_1
XPHY_4 VGND VGND VPWR VPWR sky130_fd_sc_hd__decap_3
XFILLER_0_7_69 VPWR VGND VPWR VGND sky130_ef_sc_hd__decap_12
XFILLER_0_3_181 VGND VGND VPWR VPWR sky130_fd_sc_hd__decap_8
XFILLER_0_13_39 VGND VGND VPWR VPWR sky130_fd_sc_hd__decap_8
XFILLER_0_24_27 VGND VGND VPWR VPWR sky130_fd_sc_hd__fill_1
XFILLER_0_4_26 VGND VGND VPWR VPWR sky130_fd_sc_hd__fill_2
XFILLER_0_19_27 VPWR VGND VPWR VGND sky130_ef_sc_hd__decap_12
X_181_ _094_ VGND VGND VPWR VPWR _025_ sky130_fd_sc_hd__inv_2
XFILLER_0_10_29 VPWR VGND VPWR VGND sky130_ef_sc_hd__decap_12
XFILLER_0_27_146 VPWR VGND VPWR VGND sky130_ef_sc_hd__decap_12
XFILLER_0_27_113 VGND VGND VPWR VPWR sky130_fd_sc_hd__decap_8
XFILLER_0_25_81 VPWR VGND VPWR VGND sky130_ef_sc_hd__decap_12
XFILLER_0_21_39 VPWR VGND VPWR VGND sky130_ef_sc_hd__decap_12
XFILLER_0_1_27 VPWR VGND VPWR VGND sky130_ef_sc_hd__decap_12
X_164_ shift_reg\[13\] _074_ VGND VGND VPWR VPWR _092_ sky130_fd_sc_hd__or2_1
XFILLER_0_20_141 VPWR VGND VPWR VGND sky130_ef_sc_hd__decap_12
X_147_ net29 _073_ _076_ net12 _083_ VGND VGND VPWR VPWR _012_ sky130_fd_sc_hd__o221a_1
X_216_ _047_ _013_ _046_ VGND VGND VPWR VPWR shift_reg\[6\] sky130_fd_sc_hd__dfrtp_1
XFILLER_0_7_146 VPWR VGND VPWR VGND sky130_ef_sc_hd__decap_12
XFILLER_0_12_108 VGND VGND VPWR VPWR sky130_fd_sc_hd__fill_1
XFILLER_0_11_130 VGND VGND VPWR VPWR sky130_fd_sc_hd__fill_1
XPHY_5 VGND VGND VPWR VPWR sky130_fd_sc_hd__decap_3
XFILLER_0_21_3 VPWR VGND VPWR VGND sky130_ef_sc_hd__decap_12
XFILLER_0_0_174 VGND VGND VPWR VPWR sky130_fd_sc_hd__decap_8
XFILLER_0_0_141 VGND VGND VPWR VPWR sky130_fd_sc_hd__decap_8
XFILLER_0_14_83 VGND VGND VPWR VPWR sky130_fd_sc_hd__fill_1
X_180_ _094_ VGND VGND VPWR VPWR _023_ sky130_fd_sc_hd__inv_2
XFILLER_0_27_169 VGND VGND VPWR VPWR sky130_fd_sc_hd__fill_2
XFILLER_0_27_158 VGND VGND VPWR VPWR sky130_fd_sc_hd__decap_8
XFILLER_0_27_125 VPWR VGND VPWR VGND sky130_ef_sc_hd__decap_12
XFILLER_0_19_39 VPWR VGND VPWR VGND sky130_ef_sc_hd__decap_12
XFILLER_0_25_93 VPWR VGND VPWR VGND sky130_ef_sc_hd__decap_12
XFILLER_0_24_139 VGND VGND VPWR VPWR sky130_fd_sc_hd__fill_1
XFILLER_0_5_81 VPWR VGND VPWR VGND sky130_ef_sc_hd__decap_12
X_163_ net22 _072_ _075_ net5 _091_ VGND VGND VPWR VPWR _005_ sky130_fd_sc_hd__o221a_1
XFILLER_0_23_161 VGND VGND VPWR VPWR sky130_fd_sc_hd__decap_6
XFILLER_0_1_39 VGND VGND VPWR VPWR sky130_fd_sc_hd__decap_8
XFILLER_0_16_29 VPWR VGND VPWR VGND sky130_ef_sc_hd__decap_12
XFILLER_0_16_18 VGND VGND VPWR VPWR sky130_fd_sc_hd__decap_8
XFILLER_0_20_153 VPWR VGND VPWR VGND sky130_ef_sc_hd__decap_12
XFILLER_0_20_131 VGND VGND VPWR VPWR sky130_fd_sc_hd__decap_8
X_215_ _045_ _012_ _044_ VGND VGND VPWR VPWR shift_reg\[5\] sky130_fd_sc_hd__dfrtp_1
X_146_ shift_reg\[4\] _078_ VGND VGND VPWR VPWR _083_ sky130_fd_sc_hd__or2_1
XFILLER_0_22_83 VGND VGND VPWR VPWR sky130_fd_sc_hd__fill_1
XFILLER_0_7_125 VGND VGND VPWR VPWR sky130_fd_sc_hd__fill_1
XFILLER_0_7_158 VGND VGND VPWR VPWR sky130_fd_sc_hd__decap_8
XFILLER_0_7_169 VPWR VGND VPWR VGND sky130_ef_sc_hd__decap_12
XPHY_6 VGND VGND VPWR VPWR sky130_fd_sc_hd__decap_3
XFILLER_0_4_139 VGND VGND VPWR VPWR sky130_fd_sc_hd__fill_1
XFILLER_0_16_6 VPWR VGND VPWR VGND sky130_ef_sc_hd__decap_12
XFILLER_0_3_161 VGND VGND VPWR VPWR sky130_fd_sc_hd__decap_6
X_129_ net36 _070_ VGND VGND VPWR VPWR _071_ sky130_fd_sc_hd__or2_1
XFILLER_0_0_153 VPWR VGND VPWR VGND sky130_ef_sc_hd__decap_12
XFILLER_0_14_3 VPWR VGND VPWR VGND sky130_ef_sc_hd__decap_12
XFILLER_0_24_29 VPWR VGND VPWR VGND sky130_ef_sc_hd__decap_12
XFILLER_0_27_137 VGND VGND VPWR VPWR sky130_fd_sc_hd__decap_3
XFILLER_0_3_3 VPWR VGND VPWR VGND sky130_ef_sc_hd__decap_12
XFILLER_0_18_126 VGND VGND VPWR VPWR sky130_fd_sc_hd__fill_2
XFILLER_0_17_181 VGND VGND VPWR VPWR sky130_fd_sc_hd__decap_8
XFILLER_0_5_93 VPWR VGND VPWR VGND sky130_ef_sc_hd__decap_12
X_162_ shift_reg\[12\] _074_ VGND VGND VPWR VPWR _091_ sky130_fd_sc_hd__or2_1
XFILLER_0_11_52 VGND VGND VPWR VPWR sky130_fd_sc_hd__decap_4
Xinput1 left_data[0] VGND VGND VPWR VPWR net1 sky130_fd_sc_hd__clkbuf_1
XTAP_90 VGND VPWR sky130_fd_sc_hd__tapvpwrvgnd_1
XFILLER_0_20_165 VPWR VGND VPWR VGND sky130_ef_sc_hd__decap_12
X_214_ _043_ _011_ _042_ VGND VGND VPWR VPWR shift_reg\[4\] sky130_fd_sc_hd__dfrtp_1
X_145_ net28 _073_ _076_ net11 _082_ VGND VGND VPWR VPWR _011_ sky130_fd_sc_hd__o221a_1
XFILLER_0_2_83 VGND VGND VPWR VPWR sky130_fd_sc_hd__fill_1
XFILLER_0_27_29 VGND VGND VPWR VPWR sky130_fd_sc_hd__fill_2
XPHY_7 VGND VGND VPWR VPWR sky130_fd_sc_hd__decap_3
X_128_ bit_counter\[0\] bit_counter\[1\] bit_counter\[3\] bit_counter\[2\] VGND VGND
+ VPWR VPWR _070_ sky130_fd_sc_hd__nand4_2
XFILLER_0_0_121 VGND VGND VPWR VPWR sky130_fd_sc_hd__fill_1
XFILLER_0_0_165 VGND VGND VPWR VPWR sky130_fd_sc_hd__decap_3
XFILLER_0_8_93 VGND VGND VPWR VPWR sky130_fd_sc_hd__fill_2
XFILLER_0_4_18 VGND VGND VPWR VPWR sky130_fd_sc_hd__decap_8
XFILLER_0_4_29 VPWR VGND VPWR VGND sky130_ef_sc_hd__decap_12
XFILLER_0_14_41 VGND VGND VPWR VPWR sky130_fd_sc_hd__decap_4
XFILLER_0_27_105 VGND VGND VPWR VPWR sky130_fd_sc_hd__decap_6
XFILLER_0_18_138 VGND VGND VPWR VPWR sky130_fd_sc_hd__fill_2
X_161_ net21 _072_ _075_ net4 _090_ VGND VGND VPWR VPWR _004_ sky130_fd_sc_hd__o221a_1
Xinput2 left_data[10] VGND VGND VPWR VPWR net2 sky130_fd_sc_hd__buf_1
XTAP_80 VGND VPWR sky130_fd_sc_hd__tapvpwrvgnd_1
XTAP_91 VGND VPWR sky130_fd_sc_hd__tapvpwrvgnd_1
XFILLER_0_20_177 VPWR VGND VPWR VGND sky130_ef_sc_hd__decap_12
X_213_ _041_ _010_ _040_ VGND VGND VPWR VPWR shift_reg\[3\] sky130_fd_sc_hd__dfrtp_1
X_144_ shift_reg\[3\] _078_ VGND VGND VPWR VPWR _082_ sky130_fd_sc_hd__or2_1
XFILLER_0_22_85 VPWR VGND VPWR VGND sky130_ef_sc_hd__decap_12
XFILLER_0_22_41 VPWR VGND VPWR VGND sky130_ef_sc_hd__decap_12
XFILLER_0_7_105 VGND VGND VPWR VPWR sky130_fd_sc_hd__decap_6
XFILLER_0_7_116 VGND VGND VPWR VPWR sky130_fd_sc_hd__decap_4
XFILLER_0_11_111 VGND VGND VPWR VPWR sky130_fd_sc_hd__fill_1
X_127_ net18 VGND VGND VPWR VPWR _069_ sky130_fd_sc_hd__inv_2
XPHY_8 VGND VGND VPWR VPWR sky130_fd_sc_hd__decap_3
XFILLER_0_7_18 VPWR VGND VPWR VGND sky130_ef_sc_hd__decap_12
XFILLER_0_8_83 VGND VGND VPWR VPWR sky130_fd_sc_hd__fill_1
XFILLER_0_14_75 VGND VGND VPWR VPWR sky130_fd_sc_hd__fill_1
XFILLER_0_25_30 VPWR VGND VPWR VGND sky130_ef_sc_hd__decap_12
XFILLER_0_5_51 VGND VGND VPWR VPWR sky130_fd_sc_hd__decap_4
XFILLER_0_24_109 VPWR VGND VPWR VGND sky130_ef_sc_hd__decap_12
X_160_ shift_reg\[11\] _074_ VGND VGND VPWR VPWR _090_ sky130_fd_sc_hd__or2_1
Xinput3 left_data[11] VGND VGND VPWR VPWR net3 sky130_fd_sc_hd__buf_1
XTAP_70 VGND VPWR sky130_fd_sc_hd__tapvpwrvgnd_1
XTAP_81 VGND VPWR sky130_fd_sc_hd__tapvpwrvgnd_1
XTAP_92 VGND VPWR sky130_fd_sc_hd__tapvpwrvgnd_1
X_143_ net27 _073_ _076_ net10 _081_ VGND VGND VPWR VPWR _010_ sky130_fd_sc_hd__o221a_1
X_212_ _039_ _009_ _038_ VGND VGND VPWR VPWR shift_reg\[2\] sky130_fd_sc_hd__dfrtp_1
XFILLER_0_22_97 VPWR VGND VPWR VGND sky130_ef_sc_hd__decap_12
XFILLER_0_22_53 VPWR VGND VPWR VGND sky130_ef_sc_hd__decap_12
XFILLER_0_20_189 VGND VGND VPWR VPWR sky130_fd_sc_hd__fill_1
XFILLER_0_11_189 VGND VGND VPWR VPWR sky130_fd_sc_hd__fill_1
XFILLER_0_2_85 VPWR VGND VPWR VGND sky130_ef_sc_hd__decap_12
XFILLER_0_2_41 VPWR VGND VPWR VGND sky130_ef_sc_hd__decap_12
X_126_ bit_counter\[0\] VGND VGND VPWR VPWR _017_ sky130_fd_sc_hd__inv_2
XFILLER_0_4_109 VPWR VGND VPWR VGND sky130_ef_sc_hd__decap_12
XPHY_9 VGND VGND VPWR VPWR sky130_fd_sc_hd__decap_3
X_109_ _067_ VGND VGND VPWR VPWR _052_ sky130_fd_sc_hd__inv_2
XFILLER_0_25_42 VPWR VGND VPWR VGND sky130_ef_sc_hd__decap_12
XFILLER_0_1_3 VPWR VGND VPWR VGND sky130_ef_sc_hd__decap_12
XTAP_60 VGND VPWR sky130_fd_sc_hd__tapvpwrvgnd_1
XTAP_71 VGND VPWR sky130_fd_sc_hd__tapvpwrvgnd_1
Xinput4 left_data[12] VGND VGND VPWR VPWR net4 sky130_fd_sc_hd__buf_1
XTAP_82 VGND VPWR sky130_fd_sc_hd__tapvpwrvgnd_1
XFILLER_0_11_66 VGND VGND VPWR VPWR sky130_fd_sc_hd__decap_3
XTAP_93 VGND VPWR sky130_fd_sc_hd__tapvpwrvgnd_1
X_142_ shift_reg\[2\] _078_ VGND VGND VPWR VPWR _081_ sky130_fd_sc_hd__or2_1
XFILLER_0_9_181 VGND VGND VPWR VPWR sky130_fd_sc_hd__decap_8
X_211_ _037_ _008_ _036_ VGND VGND VPWR VPWR shift_reg\[1\] sky130_fd_sc_hd__dfrtp_1
XFILLER_0_22_65 VPWR VGND VPWR VGND sky130_ef_sc_hd__decap_12
XFILLER_0_2_97 VPWR VGND VPWR VGND sky130_ef_sc_hd__decap_12
XFILLER_0_2_53 VPWR VGND VPWR VGND sky130_ef_sc_hd__decap_12
XFILLER_0_11_113 VGND VGND VPWR VPWR sky130_fd_sc_hd__fill_2
XFILLER_0_11_124 VGND VGND VPWR VPWR sky130_fd_sc_hd__decap_6
X_125_ net17 VGND VGND VPWR VPWR _022_ sky130_fd_sc_hd__inv_2
X_108_ _067_ VGND VGND VPWR VPWR _054_ sky130_fd_sc_hd__inv_2
XFILLER_0_0_113 VGND VGND VPWR VPWR sky130_fd_sc_hd__decap_8
XFILLER_0_8_41 VPWR VGND VPWR VGND sky130_ef_sc_hd__decap_12
XFILLER_0_8_85 VGND VGND VPWR VPWR sky130_fd_sc_hd__decap_8
XFILLER_0_26_141 VPWR VGND VPWR VGND sky130_ef_sc_hd__decap_12
XFILLER_0_25_54 VGND VGND VPWR VPWR sky130_fd_sc_hd__fill_2
XFILLER_0_17_130 VGND VGND VPWR VPWR sky130_fd_sc_hd__fill_1
XFILLER_0_23_111 VGND VGND VPWR VPWR sky130_fd_sc_hd__fill_1
Xinput5 left_data[13] VGND VGND VPWR VPWR net5 sky130_fd_sc_hd__buf_1
XFILLER_0_14_188 VGND VGND VPWR VPWR sky130_fd_sc_hd__fill_2
XFILLER_0_14_144 VPWR VGND VPWR VGND sky130_ef_sc_hd__decap_12
XFILLER_0_14_111 VGND VGND VPWR VPWR sky130_fd_sc_hd__fill_2
XTAP_61 VGND VPWR sky130_fd_sc_hd__tapvpwrvgnd_1
XTAP_72 VGND VPWR sky130_fd_sc_hd__tapvpwrvgnd_1
XTAP_83 VGND VPWR sky130_fd_sc_hd__tapvpwrvgnd_1
XTAP_94 VGND VPWR sky130_fd_sc_hd__tapvpwrvgnd_1
XFILLER_0_20_103 VGND VGND VPWR VPWR sky130_fd_sc_hd__fill_1
X_141_ net26 _073_ _076_ net9 _080_ VGND VGND VPWR VPWR _009_ sky130_fd_sc_hd__o221a_1
X_210_ _035_ _001_ _034_ VGND VGND VPWR VPWR shift_reg\[0\] sky130_fd_sc_hd__dfrtp_1
XFILLER_0_22_77 VGND VGND VPWR VPWR sky130_fd_sc_hd__decap_6
XFILLER_0_2_65 VPWR VGND VPWR VGND sky130_ef_sc_hd__decap_12
XFILLER_0_6_141 VPWR VGND VPWR VGND sky130_ef_sc_hd__decap_12
XFILLER_0_11_136 VPWR VGND VPWR VGND sky130_ef_sc_hd__decap_12
XFILLER_0_11_169 VPWR VGND VPWR VGND sky130_ef_sc_hd__decap_12
X_124_ net17 VGND VGND VPWR VPWR _024_ sky130_fd_sc_hd__inv_2
XFILLER_0_6_185 VGND VGND VPWR VPWR sky130_fd_sc_hd__fill_2
XFILLER_0_10_180 VGND VGND VPWR VPWR sky130_fd_sc_hd__decap_6
Xinput30 right_data[6] VGND VGND VPWR VPWR net30 sky130_fd_sc_hd__clkbuf_1
XFILLER_0_3_111 VGND VGND VPWR VPWR sky130_fd_sc_hd__fill_1
XFILLER_0_0_169 VGND VGND VPWR VPWR sky130_fd_sc_hd__fill_2
XFILLER_0_0_125 VPWR VGND VPWR VGND sky130_ef_sc_hd__decap_12
X_107_ _067_ VGND VGND VPWR VPWR _056_ sky130_fd_sc_hd__inv_2
XFILLER_0_8_53 VPWR VGND VPWR VGND sky130_ef_sc_hd__decap_12
XFILLER_0_14_45 VGND VGND VPWR VPWR sky130_fd_sc_hd__fill_1
XFILLER_0_26_153 VPWR VGND VPWR VGND sky130_ef_sc_hd__decap_12
XFILLER_0_23_189 VGND VGND VPWR VPWR sky130_fd_sc_hd__fill_1
XFILLER_0_23_167 VGND VGND VPWR VPWR sky130_fd_sc_hd__fill_1
XFILLER_0_11_57 VGND VGND VPWR VPWR sky130_fd_sc_hd__decap_3
XFILLER_0_14_156 VPWR VGND VPWR VGND sky130_ef_sc_hd__decap_12
Xinput6 left_data[14] VGND VGND VPWR VPWR net6 sky130_fd_sc_hd__clkbuf_1
XTAP_62 VGND VPWR sky130_fd_sc_hd__tapvpwrvgnd_1
XTAP_73 VGND VPWR sky130_fd_sc_hd__tapvpwrvgnd_1
XTAP_84 VGND VPWR sky130_fd_sc_hd__tapvpwrvgnd_1
XTAP_95 VGND VPWR sky130_fd_sc_hd__tapvpwrvgnd_1
X_140_ shift_reg\[1\] _078_ VGND VGND VPWR VPWR _080_ sky130_fd_sc_hd__or2_1
XFILLER_0_2_77 VGND VGND VPWR VPWR sky130_fd_sc_hd__decap_6
XFILLER_0_11_148 VPWR VGND VPWR VGND sky130_ef_sc_hd__decap_12
XFILLER_0_6_153 VPWR VGND VPWR VGND sky130_ef_sc_hd__decap_12
Xinput20 right_data[11] VGND VGND VPWR VPWR net20 sky130_fd_sc_hd__buf_1
X_123_ _068_ VGND VGND VPWR VPWR _026_ sky130_fd_sc_hd__inv_2
XFILLER_0_17_67 VGND VGND VPWR VPWR sky130_fd_sc_hd__decap_3
Xinput31 right_data[7] VGND VGND VPWR VPWR net31 sky130_fd_sc_hd__buf_1
XFILLER_0_3_167 VGND VGND VPWR VPWR sky130_fd_sc_hd__fill_1
XFILLER_0_3_189 VGND VGND VPWR VPWR sky130_fd_sc_hd__fill_1
XFILLER_0_0_137 VGND VGND VPWR VPWR sky130_fd_sc_hd__decap_3
X_106_ _067_ VGND VGND VPWR VPWR _058_ sky130_fd_sc_hd__inv_2
XFILLER_0_8_65 VPWR VGND VPWR VGND sky130_ef_sc_hd__decap_12
XFILLER_0_26_121 VPWR VGND VPWR VGND sky130_ef_sc_hd__decap_12
XFILLER_0_26_165 VPWR VGND VPWR VGND sky130_ef_sc_hd__decap_12
XFILLER_0_17_154 VPWR VGND VPWR VGND sky130_ef_sc_hd__decap_12
XFILLER_0_5_55 VGND VGND VPWR VPWR sky130_fd_sc_hd__fill_1
XFILLER_0_10_3 VPWR VGND VPWR VGND sky130_ef_sc_hd__decap_12
XFILLER_0_23_113 VPWR VGND VPWR VGND sky130_ef_sc_hd__decap_12
Xinput7 left_data[15] VGND VGND VPWR VPWR net7 sky130_fd_sc_hd__buf_1
XFILLER_0_14_168 VPWR VGND VPWR VGND sky130_ef_sc_hd__decap_12
XTAP_63 VGND VPWR sky130_fd_sc_hd__tapvpwrvgnd_1
XTAP_74 VGND VPWR sky130_fd_sc_hd__tapvpwrvgnd_1
XTAP_85 VGND VPWR sky130_fd_sc_hd__tapvpwrvgnd_1
XTAP_96 VGND VPWR sky130_fd_sc_hd__tapvpwrvgnd_1
XFILLER_0_9_151 VPWR VGND VPWR VGND sky130_ef_sc_hd__decap_12
X_199_ _101_ VGND VGND VPWR VPWR _059_ sky130_fd_sc_hd__inv_2
XFILLER_0_6_121 VPWR VGND VPWR VGND sky130_ef_sc_hd__decap_12
XFILLER_0_6_165 VPWR VGND VPWR VGND sky130_ef_sc_hd__decap_12
X_122_ _068_ VGND VGND VPWR VPWR _028_ sky130_fd_sc_hd__inv_2
Xinput10 left_data[3] VGND VGND VPWR VPWR net10 sky130_fd_sc_hd__clkbuf_1
Xinput32 right_data[8] VGND VGND VPWR VPWR net32 sky130_fd_sc_hd__buf_1